2026/02/05 15:38:58 INFO (/CMC/tools/cadence/SPECTRE23.10.802_lnx86/tools.lnx86/bin/cdnsEnvCheck): Rocky Linux release 8.10 (Green Obsidian) detected (set environment variable CDS_SKIP_OS_CHECK_ON_STARTUP=1 to suppress).

Spectre (R) Circuit Simulator
Version 23.1.0.802.isr17 64bit -- 10 Apr 2025
Copyright (C) 1989-2025 Cadence Design Systems, Inc. All rights reserved
        worldwide. Cadence and Spectre are registered trademarks of Cadence
        Design Systems, Inc. All others are the property of their respective
        holders.

Includes RSA BSAFE(R) Cryptographic or Security Protocol Software from RSA
        Security, Inc.

User: v71349   Host: vcl-vm0-159   HostID: 10AC9F79   PID: 2761278
Memory  available: 13.1389 GB  physical: 16.2294 GB
Linux   : Rocky Linux release 8.10 (Green Obsidian)
CPU Type: Intel(R) Xeon(R) Gold 6248R CPU @ 3.00GHz
All processors running at 2993.0 MHz
        Socket: Processors
        0:       0
        2:       1
        4:       2
        6:       3
        
System load averages (1min, 5min, 15min) : 19.5 %, 13.2 %, 5.5 %
This is a virtual machine


Simulating `softmax4_analog_gpdk180.scs' on vcl-vm0-159 at 3:38:58 PM, Thur Feb
        5, 2026 (process id: 2761278).
Current working directory:
        /home/v71349/analog-gradients/competition/sweeps/nonlinearity/20260205_153854/analog_softmax4/vec_3
Command line:
    /CMC/tools/cadence/SPECTRE23.10.802_lnx86/tools.lnx86/bin/spectre  \
        -64 softmax4_analog_gpdk180.scs -raw  \
        softmax4_analog_gpdk180.raw +log spectre.log
Licensing Information:
[15:38:58.502769] Configured Lic search path (22.01-s002):
        6055@licaccess.cmc.ca

Licensing Information:
[15:38:59.224704] Periodic Lic check successful

Reading file: 
        /home/v71349/analog-gradients/competition/sweeps/nonlinearity/20260205_153854/analog_softmax4/vec_3/softmax4_analog_gpdk180.scs
Reading file: 
        /CMC/tools/cadence/SPECTRE23.10.802_lnx86/tools.lnx86/spectre/etc/configs/spectre.cfg
Reading file:  /CMC/kits/cadence/GPDK180/gpdk180_v3.3/models/spectre/gpdk.scs
Reading file: 
        /CMC/kits/cadence/GPDK180/gpdk180_v3.3/models/spectre/mos25gen.scs
Reading file:  /CMC/kits/cadence/GPDK180/gpdk180_v3.3/models/spectre/nmos1.scs
Reading file:  /CMC/kits/cadence/GPDK180/gpdk180_v3.3/models/spectre/pmos1.scs
Reading file: 
        /CMC/kits/cadence/GPDK180/gpdk180_v3.3/models/spectre/resistor.scs
Reading file: 
        /CMC/kits/cadence/GPDK180/gpdk180_v3.3/models/spectre/capacitor.scs
Reading file:  /CMC/kits/cadence/GPDK180/gpdk180_v3.3/models/spectre/diode.scs
Reading file: 
        /CMC/kits/cadence/GPDK180/gpdk180_v3.3/models/spectre/bipolar.scs
Reading file:  /CMC/kits/cadence/GPDK180/gpdk180_v3.3/models/spectre/rfmos.scs
Reading file: 
        /CMC/kits/cadence/GPDK180/gpdk180_v3.3/models/spectre/xjvar_nf36.scs
Reading file: 
        /CMC/kits/cadence/GPDK180/gpdk180_v3.3/models/spectre/xjvar_w40.scs
Reading file: 
        /CMC/kits/cadence/GPDK180/gpdk180_v3.3/models/spectre/snacapacitor.scs
Reading file: 
        /CMC/kits/cadence/GPDK180/gpdk180_v3.3/models/spectre/cmodel.scs
Time for NDB Parsing: CPU = 83.772 ms, elapsed = 590.694 ms.
Time accumulated: CPU = 170.767 ms, elapsed = 590.696 ms.
Peak resident memory used = 176 Mbytes.


Error found by spectre during circuit read-in.
    ERROR (SFE-59): "softmax4_analog_gpdk180.scs" 9: Cannot run the simulation
        because parameter `in0' has already been defined. To allow duplicate
        parameter definitions, set the value of `redefinedparams' to `ignore'
        or `warning' in the netlist to consider the parameter defined later.
        Next, rerun the simulation.
    ERROR (SFE-59): "softmax4_analog_gpdk180.scs" 9: Cannot run the simulation
        because parameter `in1' has already been defined. To allow duplicate
        parameter definitions, set the value of `redefinedparams' to `ignore'
        or `warning' in the netlist to consider the parameter defined later.
        Next, rerun the simulation.
    ERROR (SFE-59): "softmax4_analog_gpdk180.scs" 9: Cannot run the simulation
        because parameter `in2' has already been defined. To allow duplicate
        parameter definitions, set the value of `redefinedparams' to `ignore'
        or `warning' in the netlist to consider the parameter defined later.
        Next, rerun the simulation.
    ERROR (SFE-59): "softmax4_analog_gpdk180.scs" 9: Cannot run the simulation
        because parameter `in3' has already been defined. To allow duplicate
        parameter definitions, set the value of `redefinedparams' to `ignore'
        or `warning' in the netlist to consider the parameter defined later.
        Next, rerun the simulation.
    ERROR (SFE-59): "softmax4_analog_gpdk180.scs" 10: Cannot run the simulation
        because parameter `itail' has already been defined. To allow duplicate
        parameter definitions, set the value of `redefinedparams' to `ignore'
        or `warning' in the netlist to consider the parameter defined later.
        Next, rerun the simulation.
    ERROR (SFE-59): "softmax4_analog_gpdk180.scs" 10: Cannot run the simulation
        because parameter `rout' has already been defined. To allow duplicate
        parameter definitions, set the value of `redefinedparams' to `ignore'
        or `warning' in the netlist to consider the parameter defined later.
        Next, rerun the simulation.
    ERROR (SFE-59): "softmax4_analog_gpdk180.scs" 11: Cannot run the simulation
        because parameter `w_exp' has already been defined. To allow duplicate
        parameter definitions, set the value of `redefinedparams' to `ignore'
        or `warning' in the netlist to consider the parameter defined later.
        Next, rerun the simulation.
    ERROR (SFE-59): "softmax4_analog_gpdk180.scs" 11: Cannot run the simulation
        because parameter `l_exp' has already been defined. To allow duplicate
        parameter definitions, set the value of `redefinedparams' to `ignore'
        or `warning' in the netlist to consider the parameter defined later.
        Next, rerun the simulation.

Time for Elaboration: CPU = 18.552 ms, elapsed = 18.6739 ms.
Time accumulated: CPU = 189.398 ms, elapsed = 609.449 ms.
Peak resident memory used = 185 Mbytes.

Licensing Information:
Lic Summary:
[15:38:59.298545] Cdslmd servers:6055@licaccess.cmc.ca
[15:38:59.298561] Feature usage summary:
[15:38:59.298561] Virtuoso_Multi_mode_Simulation


Aggregate audit (3:38:59 PM, Thur Feb 5, 2026):
Time used: CPU = 190 ms, elapsed = 610 ms, util. = 31.1%.
Time spent in licensing: elapsed = 378 ms, percentage of total = 61.9%.
Peak memory used = 185 Mbytes.
Simulation started at: 3:38:58 PM, Thur Feb 5, 2026, ended at: 3:38:59 PM, Thur
        Feb 5, 2026, with elapsed time (wall clock): 610 ms.
spectre completes with 8 errors, 0 warnings, and 0 notices.
spectre terminated prematurely due to fatal error.
