2026/02/05 15:48:23 INFO (/CMC/tools/cadence/SPECTRE23.10.802_lnx86/tools.lnx86/bin/cdnsEnvCheck): Rocky Linux release 8.10 (Green Obsidian) detected (set environment variable CDS_SKIP_OS_CHECK_ON_STARTUP=1 to suppress).

Spectre (R) Circuit Simulator
Version 23.1.0.802.isr17 64bit -- 10 Apr 2025
Copyright (C) 1989-2025 Cadence Design Systems, Inc. All rights reserved
        worldwide. Cadence and Spectre are registered trademarks of Cadence
        Design Systems, Inc. All others are the property of their respective
        holders.

Includes RSA BSAFE(R) Cryptographic or Security Protocol Software from RSA
        Security, Inc.

User: v71349   Host: vcl-vm0-159   HostID: 10AC9F79   PID: 2810400
Memory  available: 13.1428 GB  physical: 16.2294 GB
Linux   : Rocky Linux release 8.10 (Green Obsidian)
CPU Type: Intel(R) Xeon(R) Gold 6248R CPU @ 3.00GHz
All processors running at 2993.0 MHz
        Socket: Processors
        0:       0
        2:       1
        4:       2
        6:       3
        
System load averages (1min, 5min, 15min) : 26.5 %, 22.0 %, 13.8 %
This is a virtual machine


Simulating `softmax4_digital_gpdk180.scs' on vcl-vm0-159 at 3:48:23 PM, Thur
        Feb 5, 2026 (process id: 2810400).
Current working directory:
        /home/v71349/analog-gradients/competition/sweeps/nonlinearity/20260205_153854/digital_softmax4/vec_28
Command line:
    /CMC/tools/cadence/SPECTRE23.10.802_lnx86/tools.lnx86/bin/spectre  \
        -64 softmax4_digital_gpdk180.scs -raw  \
        softmax4_digital_gpdk180.raw +log spectre.log
Licensing Information:
[15:48:24.502721] Configured Lic search path (22.01-s002):
        6055@licaccess.cmc.ca

Licensing Information:
[15:48:24.372713] Periodic Lic check successful

Reading file: 
        /home/v71349/analog-gradients/competition/sweeps/nonlinearity/20260205_153854/digital_softmax4/vec_28/softmax4_digital_gpdk180.scs
Reading file: 
        /CMC/tools/cadence/SPECTRE23.10.802_lnx86/tools.lnx86/spectre/etc/configs/spectre.cfg
Reading file:  /CMC/kits/cadence/GPDK180/gpdk180_v3.3/models/spectre/gpdk.scs
Reading file: 
        /CMC/kits/cadence/GPDK180/gpdk180_v3.3/models/spectre/mos25gen.scs
Reading file:  /CMC/kits/cadence/GPDK180/gpdk180_v3.3/models/spectre/nmos1.scs
Reading file:  /CMC/kits/cadence/GPDK180/gpdk180_v3.3/models/spectre/pmos1.scs
Reading file: 
        /CMC/kits/cadence/GPDK180/gpdk180_v3.3/models/spectre/resistor.scs
Reading file: 
        /CMC/kits/cadence/GPDK180/gpdk180_v3.3/models/spectre/capacitor.scs
Reading file:  /CMC/kits/cadence/GPDK180/gpdk180_v3.3/models/spectre/diode.scs
Reading file: 
        /CMC/kits/cadence/GPDK180/gpdk180_v3.3/models/spectre/bipolar.scs
Reading file:  /CMC/kits/cadence/GPDK180/gpdk180_v3.3/models/spectre/rfmos.scs
Reading file: 
        /CMC/kits/cadence/GPDK180/gpdk180_v3.3/models/spectre/xjvar_nf36.scs
Reading file: 
        /CMC/kits/cadence/GPDK180/gpdk180_v3.3/models/spectre/xjvar_w40.scs
Reading file: 
        /CMC/kits/cadence/GPDK180/gpdk180_v3.3/models/spectre/snacapacitor.scs
Reading file: 
        /CMC/kits/cadence/GPDK180/gpdk180_v3.3/models/spectre/cmodel.scs
Time for NDB Parsing: CPU = 82.731 ms, elapsed = 1.06015 s.
Time accumulated: CPU = 158.16 ms, elapsed = 1.06015 s.
Peak resident memory used = 175 Mbytes.


Error found by spectre during circuit read-in.
    ERROR (SFE-59): "softmax4_digital_gpdk180.scs" 8: Cannot run the simulation
        because parameter `in0' has already been defined. To allow duplicate
        parameter definitions, set the value of `redefinedparams' to `ignore'
        or `warning' in the netlist to consider the parameter defined later.
        Next, rerun the simulation.
    ERROR (SFE-59): "softmax4_digital_gpdk180.scs" 8: Cannot run the simulation
        because parameter `in1' has already been defined. To allow duplicate
        parameter definitions, set the value of `redefinedparams' to `ignore'
        or `warning' in the netlist to consider the parameter defined later.
        Next, rerun the simulation.
    ERROR (SFE-59): "softmax4_digital_gpdk180.scs" 8: Cannot run the simulation
        because parameter `in2' has already been defined. To allow duplicate
        parameter definitions, set the value of `redefinedparams' to `ignore'
        or `warning' in the netlist to consider the parameter defined later.
        Next, rerun the simulation.
    ERROR (SFE-59): "softmax4_digital_gpdk180.scs" 8: Cannot run the simulation
        because parameter `in3' has already been defined. To allow duplicate
        parameter definitions, set the value of `redefinedparams' to `ignore'
        or `warning' in the netlist to consider the parameter defined later.
        Next, rerun the simulation.
    ERROR (SFE-59): "softmax4_digital_gpdk180.scs" 9: Cannot run the simulation
        because parameter `kexp' has already been defined. To allow duplicate
        parameter definitions, set the value of `redefinedparams' to `ignore'
        or `warning' in the netlist to consider the parameter defined later.
        Next, rerun the simulation.
    ERROR (SFE-59): "softmax4_digital_gpdk180.scs" 10: Cannot run the
        simulation because parameter `idigital' has already been defined. To
        allow duplicate parameter definitions, set the value of
        `redefinedparams' to `ignore' or `warning' in the netlist to consider
        the parameter defined later. Next, rerun the simulation.

Reading link: 
        /CMC/tools/cadence/SPECTRE23.10.802_lnx86/tools.lnx86/spectre/etc/ahdl/discipline.h
Reading file: 
        /CMC/tools/cadence/SPECTRE23.10.802_lnx86/tools.lnx86/spectre/etc/ahdl/disciplines.vams
Reading link: 
        /CMC/tools/cadence/SPECTRE23.10.802_lnx86/tools.lnx86/spectre/etc/ahdl/constants.h
Reading file: 
        /CMC/tools/cadence/SPECTRE23.10.802_lnx86/tools.lnx86/spectre/etc/ahdl/constants.vams
Compiling ahdlcmi module library for bsource_a30422.
Finished compilation in 1.42 s (elapsed) for bsource_a30422.
Installed compiled interface for bsource_a30422.
Compiling ahdlcmi module library for bsource_11a63b.
Finished compilation in 1.41 s (elapsed) for bsource_11a63b.
Installed compiled interface for bsource_11a63b.
Compiling ahdlcmi module library for bsource_d6fe02.
Finished compilation in 1.44 s (elapsed) for bsource_d6fe02.
Installed compiled interface for bsource_d6fe02.
Compiling ahdlcmi module library for bsource_252009.
Finished compilation in 1.44 s (elapsed) for bsource_252009.
Installed compiled interface for bsource_252009.
Time for Elaboration: CPU = 123.551 ms, elapsed = 5.95031 s.
Time accumulated: CPU = 281.784 ms, elapsed = 7.01053 s.
Peak resident memory used = 200 Mbytes.

Licensing Information:
Lic Summary:
[15:48:30.375963] Cdslmd servers:6055@licaccess.cmc.ca
[15:48:30.375979] Feature usage summary:
[15:48:30.375984] Virtuoso_Multi_mode_Simulation


Aggregate audit (3:48:30 PM, Thur Feb 5, 2026):
Time used: CPU = 282 ms, elapsed = 7.01 s, util. = 4.03%.
Time spent in licensing: elapsed = 1.35 s, percentage of total = 19.2%.
Peak memory used = 201 Mbytes.
Simulation started at: 3:48:23 PM, Thur Feb 5, 2026, ended at: 3:48:30 PM, Thur
        Feb 5, 2026, with elapsed time (wall clock): 7.01 s.
spectre completes with 6 errors, 0 warnings, and 0 notices.
spectre terminated prematurely due to fatal error.
