2026/02/04 18:49:33 INFO (/CMC/tools/cadence/SPECTRE23.10.802_lnx86/tools.lnx86/bin/cdnsEnvCheck): Rocky Linux release 8.10 (Green Obsidian) detected (set environment variable CDS_SKIP_OS_CHECK_ON_STARTUP=1 to suppress).

Spectre (R) Circuit Simulator
Version 23.1.0.802.isr17 64bit -- 10 Apr 2025
Copyright (C) 1989-2025 Cadence Design Systems, Inc. All rights reserved
        worldwide. Cadence and Spectre are registered trademarks of Cadence
        Design Systems, Inc. All others are the property of their respective
        holders.

Includes RSA BSAFE(R) Cryptographic or Security Protocol Software from RSA
        Security, Inc.

User: v71349   Host: vcl-vm0-159   HostID: 10AC9F79   PID: 2462917
Memory  available: 13.0698 GB  physical: 16.2294 GB
Linux   : Rocky Linux release 8.10 (Green Obsidian)
CPU Type: Intel(R) Xeon(R) Gold 6248R CPU @ 3.00GHz
All processors running at 2993.0 MHz
        Socket: Processors
        0:       0
        2:       1
        4:       2
        6:       3
        
System load averages (1min, 5min, 15min) : 7.8 %, 20.0 %, 19.5 %
This is a virtual machine


Simulating
        `competition/sweeps/temporal_gradient_learning/20260204_184918_count_stress/iter_00_iin_amp_plus/trace_01_8.000ns/neuro_tile4_coupled_train.scs'
        on vcl-vm0-159 at 6:49:33 PM, Wed Feb 4, 2026 (process id: 2462917).
Current working directory:
        /home/v71349/analog-gradients/competition/sweeps/temporal_gradient_learning/20260204_184918_count_stress/iter_00_iin_amp_plus/trace_01_8.000ns
Command line:
    /CMC/tools/cadence/SPECTRE23.10.802_lnx86/tools.lnx86/bin/spectre  \
        -64  \
        competition/sweeps/temporal_gradient_learning/20260204_184918_count_stress/iter_00_iin_amp_plus/trace_01_8.000ns/neuro_tile4_coupled_train.scs
        \
        -raw neuro_tile4_coupled.raw +log spectre.log
Licensing Information:
[18:49:34.502761] Configured Lic search path (22.01-s002):
        6055@licaccess.cmc.ca

Licensing Information:
[18:49:34.316008] Periodic Lic check successful


Error found by spectre.
    ERROR (CMI-2011): Unable to open the input file
        `competition/sweeps/temporal_gradient_learning/20260204_184918_count_stress/iter_00_iin_amp_plus/trace_01_8.000ns/neuro_tile4_coupled_train.scs'.
         Ensure that the specified file or directory exists.


Aggregate audit (6:49:34 PM, Wed Feb 4, 2026):
Time used: CPU = 138 ms, elapsed = 888 ms, util. = 15.5%.
Time spent in licensing: elapsed = 888 ms, percentage of total = 100%.
Peak memory used = 165 Mbytes.
Simulation started at: 6:49:33 PM, Wed Feb 4, 2026, ended at: 6:49:34 PM, Wed
        Feb 4, 2026, with elapsed time (wall clock): 888 ms.
spectre completes with 1 error, 0 warnings, and 0 notices.
spectre terminated prematurely due to fatal error.
