
Spectre (R) Circuit Simulator
Version 23.1.0.802.isr17 64bit -- 10 Apr 2025
Copyright (C) 1989-2025 Cadence Design Systems, Inc. All rights reserved worldwide. Cadence and Spectre are registered trademarks of Cadence Design Systems, Inc. All others are the property of their respective holders.

Includes RSA BSAFE(R) Cryptographic or Security Protocol Software from RSA Security, Inc.

User: v71349   Host: vcl-vm0-159   HostID: 10AC9F79   PID: 2803255
Memory  available: 13.1387 GB  physical: 16.2294 GB
Linux   : Rocky Linux release 8.10 (Green Obsidian)
CPU Type: Intel(R) Xeon(R) Gold 6248R CPU @ 3.00GHz
All processors running at 2993.0 MHz
        Socket: Processors
        0:       0
        2:       1
        4:       2
        6:       3
        
System load averages (1min, 5min, 15min) : 19.2 %, 20.0 %, 12.5 %
This is a virtual machine


Simulating `softmax4_digital_gpdk180.scs' on vcl-vm0-159 at 3:47:07 PM, Thur Feb 5, 2026 (process id: 2803255).
Current working directory: /home/v71349/analog-gradients/competition/sweeps/nonlinearity/20260205_153854/digital_softmax4/vec_17
Command line:
    /CMC/tools/cadence/SPECTRE23.10.802_lnx86/tools.lnx86/bin/spectre  \
        -64 softmax4_digital_gpdk180.scs -raw  \
        softmax4_digital_gpdk180.raw +log spectre.log

Licensing Information:
[15:47:08.502729] Configured Lic search path (22.01-s002): 6055@licaccess.cmc.ca

Licensing Information:
[15:47:08.397256] Periodic Lic check successful

Loading /CMC/tools/cadence/SPECTRE23.10.802_lnx86/tools.lnx86/cmi/lib/64bit/5.0/libinfineon_sh.so ...
Loading /CMC/tools/cadence/SPECTRE23.10.802_lnx86/tools.lnx86/cmi/lib/64bit/5.0/libphilips_I_sh.so ...
Loading /CMC/tools/cadence/SPECTRE23.10.802_lnx86/tools.lnx86/cmi/lib/64bit/5.0/libphilips_sh.so ...
Loading /CMC/tools/cadence/SPECTRE23.10.802_lnx86/tools.lnx86/cmi/lib/64bit/5.0/libsparam_sh.so ...
Loading /CMC/tools/cadence/SPECTRE23.10.802_lnx86/tools.lnx86/cmi/lib/64bit/5.0/libstmodels_sh.so ...
Reading file:  /home/v71349/analog-gradients/competition/sweeps/nonlinearity/20260205_153854/digital_softmax4/vec_17/softmax4_digital_gpdk180.scs
Reading file:  /CMC/tools/cadence/SPECTRE23.10.802_lnx86/tools.lnx86/spectre/etc/configs/spectre.cfg
Reading file:  /CMC/kits/cadence/GPDK180/gpdk180_v3.3/models/spectre/gpdk.scs
Reading file:  /CMC/kits/cadence/GPDK180/gpdk180_v3.3/models/spectre/mos25gen.scs
Reading file:  /CMC/kits/cadence/GPDK180/gpdk180_v3.3/models/spectre/nmos1.scs
Reading file:  /CMC/kits/cadence/GPDK180/gpdk180_v3.3/models/spectre/pmos1.scs
Reading file:  /CMC/kits/cadence/GPDK180/gpdk180_v3.3/models/spectre/resistor.scs
Reading file:  /CMC/kits/cadence/GPDK180/gpdk180_v3.3/models/spectre/capacitor.scs
Reading file:  /CMC/kits/cadence/GPDK180/gpdk180_v3.3/models/spectre/diode.scs
Reading file:  /CMC/kits/cadence/GPDK180/gpdk180_v3.3/models/spectre/bipolar.scs
Reading file:  /CMC/kits/cadence/GPDK180/gpdk180_v3.3/models/spectre/rfmos.scs
Reading file:  /CMC/kits/cadence/GPDK180/gpdk180_v3.3/models/spectre/xjvar_nf36.scs
Reading file:  /CMC/kits/cadence/GPDK180/gpdk180_v3.3/models/spectre/xjvar_w40.scs
Reading file:  /CMC/kits/cadence/GPDK180/gpdk180_v3.3/models/spectre/snacapacitor.scs
Reading file:  /CMC/kits/cadence/GPDK180/gpdk180_v3.3/models/spectre/cmodel.scs
Time for NDB Parsing: CPU = 78.153 ms, elapsed = 1.01819 s.
Time accumulated: CPU = 154.609 ms, elapsed = 1.01819 s.
Peak resident memory used = 178 Mbytes.


Error found by spectre during circuit read-in.
    ERROR (SFE-59): "softmax4_digital_gpdk180.scs" 8: Cannot run the simulation because parameter `in0' has already been defined. To allow duplicate parameter definitions, set the value of `redefinedparams' to `ignore' or `warning' in the netlist to consider the parameter defined later. Next, rerun the simulation.
    ERROR (SFE-59): "softmax4_digital_gpdk180.scs" 8: Cannot run the simulation because parameter `in1' has already been defined. To allow duplicate parameter definitions, set the value of `redefinedparams' to `ignore' or `warning' in the netlist to consider the parameter defined later. Next, rerun the simulation.
    ERROR (SFE-59): "softmax4_digital_gpdk180.scs" 8: Cannot run the simulation because parameter `in2' has already been defined. To allow duplicate parameter definitions, set the value of `redefinedparams' to `ignore' or `warning' in the netlist to consider the parameter defined later. Next, rerun the simulation.
    ERROR (SFE-59): "softmax4_digital_gpdk180.scs" 8: Cannot run the simulation because parameter `in3' has already been defined. To allow duplicate parameter definitions, set the value of `redefinedparams' to `ignore' or `warning' in the netlist to consider the parameter defined later. Next, rerun the simulation.
    ERROR (SFE-59): "softmax4_digital_gpdk180.scs" 9: Cannot run the simulation because parameter `kexp' has already been defined. To allow duplicate parameter definitions, set the value of `redefinedparams' to `ignore' or `warning' in the netlist to consider the parameter defined later. Next, rerun the simulation.
    ERROR (SFE-59): "softmax4_digital_gpdk180.scs" 10: Cannot run the simulation because parameter `idigital' has already been defined. To allow duplicate parameter definitions, set the value of `redefinedparams' to `ignore' or `warning' in the netlist to consider the parameter defined later. Next, rerun the simulation.

Reading link:  /CMC/tools/cadence/SPECTRE23.10.802_lnx86/tools.lnx86/spectre/etc/ahdl/discipline.h
Reading file:  /CMC/tools/cadence/SPECTRE23.10.802_lnx86/tools.lnx86/spectre/etc/ahdl/disciplines.vams
Reading link:  /CMC/tools/cadence/SPECTRE23.10.802_lnx86/tools.lnx86/spectre/etc/ahdl/constants.h
Reading file:  /CMC/tools/cadence/SPECTRE23.10.802_lnx86/tools.lnx86/spectre/etc/ahdl/constants.vams
Opening directory ./softmax4_digital_gpdk180.ahdlSimDB/ (775)
Opening directory ./softmax4_digital_gpdk180.ahdlSimDB//bsource_a30422.va.bsource_a30422.ahdlcmi/ (775)
Opening directory ./softmax4_digital_gpdk180.ahdlSimDB//bsource_a30422.va.bsource_a30422.ahdlcmi/Linux-64/ (775)
Compiling ahdlcmi module library for bsource_a30422.
Finished compilation in 1.45 s (elapsed) for bsource_a30422.
Installed compiled interface for bsource_a30422.
Opening directory ./softmax4_digital_gpdk180.ahdlSimDB/ (775)
Opening directory ./softmax4_digital_gpdk180.ahdlSimDB//bsource_11a63b.va.bsource_11a63b.ahdlcmi/ (775)
Opening directory ./softmax4_digital_gpdk180.ahdlSimDB//bsource_11a63b.va.bsource_11a63b.ahdlcmi/Linux-64/ (775)
Compiling ahdlcmi module library for bsource_11a63b.
Finished compilation in 1.45 s (elapsed) for bsource_11a63b.
Installed compiled interface for bsource_11a63b.
Opening directory ./softmax4_digital_gpdk180.ahdlSimDB/ (775)
Opening directory ./softmax4_digital_gpdk180.ahdlSimDB//bsource_d6fe02.va.bsource_d6fe02.ahdlcmi/ (775)
Opening directory ./softmax4_digital_gpdk180.ahdlSimDB//bsource_d6fe02.va.bsource_d6fe02.ahdlcmi/Linux-64/ (775)
Compiling ahdlcmi module library for bsource_d6fe02.
Finished compilation in 1.44 s (elapsed) for bsource_d6fe02.
Installed compiled interface for bsource_d6fe02.
Opening directory ./softmax4_digital_gpdk180.ahdlSimDB/ (775)
Opening directory ./softmax4_digital_gpdk180.ahdlSimDB//bsource_252009.va.bsource_252009.ahdlcmi/ (775)
Opening directory ./softmax4_digital_gpdk180.ahdlSimDB//bsource_252009.va.bsource_252009.ahdlcmi/Linux-64/ (775)
Compiling ahdlcmi module library for bsource_252009.
Finished compilation in 1.45 s (elapsed) for bsource_252009.
Installed compiled interface for bsource_252009.
Time for Elaboration: CPU = 111.246 ms, elapsed = 5.91058 s.
Time accumulated: CPU = 265.925 ms, elapsed = 6.92884 s.
Peak resident memory used = 206 Mbytes.

Licensing Information:
Lic Summary:
[15:47:14.364432] Cdslmd servers:6055@licaccess.cmc.ca
[15:47:14.364457] Feature usage summary:
[15:47:14.364457] Virtuoso_Multi_mode_Simulation


Aggregate audit (3:47:14 PM, Thur Feb 5, 2026):
Time used: CPU = 266 ms, elapsed = 6.93 s, util. = 3.85%.
Time spent in licensing: elapsed = 1.32 s, percentage of total = 19.1%.
Peak memory used = 207 Mbytes.
Simulation started at: 3:47:07 PM, Thur Feb 5, 2026, ended at: 3:47:14 PM, Thur Feb 5, 2026, with elapsed time (wall clock): 6.93 s.
spectre completes with 6 errors, 0 warnings, and 0 notices.
spectre terminated prematurely due to fatal error.
