
Spectre (R) Circuit Simulator
Version 23.1.0.802.isr17 64bit -- 10 Apr 2025
Copyright (C) 1989-2025 Cadence Design Systems, Inc. All rights reserved worldwide. Cadence and Spectre are registered trademarks of Cadence Design Systems, Inc. All others are the property of their respective holders.

Includes RSA BSAFE(R) Cryptographic or Security Protocol Software from RSA Security, Inc.

User: v71349   Host: vcl-vm0-159   HostID: 10AC9F79   PID: 98688
Memory  available: 13.7350 GB  physical: 16.2294 GB
Linux   : Rocky Linux release 8.10 (Green Obsidian)
CPU Type: Intel(R) Xeon(R) Gold 6248R CPU @ 3.00GHz
All processors running at 2993.0 MHz
        Socket: Processors
        0:       0
        2:       1
        4:       2
        6:       3
        
System load averages (1min, 5min, 15min) : 28.5 %, 26.5 %, 25.2 %
This is a virtual machine


Simulating `/home/v71349/analog-gradients/netlists/inverter.scs' on vcl-vm0-159 at 8:02:12 PM, Sat Jan 31, 2026 (process id: 98688).
Current working directory: /home/v71349/analog-gradients/results/inverter
Command line:
    /CMC/tools/cadence/SPECTRE23.10.802_lnx86/tools.lnx86/bin/spectre  \
        -64 /home/v71349/analog-gradients/netlists/inverter.scs -raw  \
        inverter.raw +log spectre.log


Fatal error found by spectre.
    FATAL: Failed to initialize license API!

lmStatus: ERROR (LMC-01902): License call failed. The license server search path is defined as <none>. Can't find license file.

Run 'lic_error LMC-01902' for more information.
