
Spectre (R) Circuit Simulator
Version 23.1.0.802.isr17 64bit -- 10 Apr 2025
Copyright (C) 1989-2025 Cadence Design Systems, Inc. All rights reserved worldwide. Cadence and Spectre are registered trademarks of Cadence Design Systems, Inc. All others are the property of their respective holders.

Includes RSA BSAFE(R) Cryptographic or Security Protocol Software from RSA Security, Inc.

User: v71349   Host: vcl-vm0-159   HostID: 10AC9F79   PID: 2463017
Memory  available: 13.0677 GB  physical: 16.2294 GB
Linux   : Rocky Linux release 8.10 (Green Obsidian)
CPU Type: Intel(R) Xeon(R) Gold 6248R CPU @ 3.00GHz
All processors running at 2993.0 MHz
        Socket: Processors
        0:       0
        2:       1
        4:       2
        6:       3
        
System load averages (1min, 5min, 15min) : 7.2 %, 19.8 %, 19.5 %
This is a virtual machine


Simulating `competition/sweeps/temporal_gradient_learning/20260204_184918_count_stress/final_holdout/trace_00_6.500ns/neuro_tile4_coupled_train.scs' on vcl-vm0-159 at 6:49:39 PM, Wed Feb 4, 2026 (process id: 2463017).
Current working directory: /home/v71349/analog-gradients/competition/sweeps/temporal_gradient_learning/20260204_184918_count_stress/final_holdout/trace_00_6.500ns
Command line:
    /CMC/tools/cadence/SPECTRE23.10.802_lnx86/tools.lnx86/bin/spectre  \
        -64  \
        competition/sweeps/temporal_gradient_learning/20260204_184918_count_stress/final_holdout/trace_00_6.500ns/neuro_tile4_coupled_train.scs  \
        -raw neuro_tile4_coupled.raw +log spectre.log

Licensing Information:
[18:49:39.502801] Configured Lic search path (22.01-s002): 6055@licaccess.cmc.ca

Licensing Information:
[18:49:39.343752] Periodic Lic check successful

Loading /CMC/tools/cadence/SPECTRE23.10.802_lnx86/tools.lnx86/cmi/lib/64bit/5.0/libinfineon_sh.so ...
Loading /CMC/tools/cadence/SPECTRE23.10.802_lnx86/tools.lnx86/cmi/lib/64bit/5.0/libphilips_I_sh.so ...
Loading /CMC/tools/cadence/SPECTRE23.10.802_lnx86/tools.lnx86/cmi/lib/64bit/5.0/libphilips_sh.so ...
Loading /CMC/tools/cadence/SPECTRE23.10.802_lnx86/tools.lnx86/cmi/lib/64bit/5.0/libsparam_sh.so ...
Loading /CMC/tools/cadence/SPECTRE23.10.802_lnx86/tools.lnx86/cmi/lib/64bit/5.0/libstmodels_sh.so ...

Error found by spectre.
    ERROR (CMI-2011): Unable to open the input file `competition/sweeps/temporal_gradient_learning/20260204_184918_count_stress/final_holdout/trace_00_6.500ns/neuro_tile4_coupled_train.scs'.
         Ensure that the specified file or directory exists.


Aggregate audit (6:49:39 PM, Wed Feb 4, 2026):
Time used: CPU = 140 ms, elapsed = 881 ms, util. = 15.9%.
Time spent in licensing: elapsed = 881 ms, percentage of total = 100%.
Peak memory used = 167 Mbytes.
Simulation started at: 6:49:39 PM, Wed Feb 4, 2026, ended at: 6:49:39 PM, Wed Feb 4, 2026, with elapsed time (wall clock): 881 ms.
spectre completes with 1 error, 0 warnings, and 0 notices.
spectre terminated prematurely due to fatal error.
